data_image0
_chemical_formula_structural       Mg4Ca4Si8O24
_chemical_formula_sum              "Mg4 Ca4 Si8 O24"
_cell_length_a       9.5164
_cell_length_b       8.6449
_cell_length_c       5.124599999999999
_cell_angle_alpha    90.0
_cell_angle_beta     105.03300000000002
_cell_angle_gamma    90.0

_space_group_name_H-M_alt    "P 1"
_space_group_IT_number       1

loop_
  _space_group_symop_operation_xyz
  'x, y, z'

loop_
  _atom_site_type_symbol
  _atom_site_label
  _atom_site_symmetry_multiplicity
  _atom_site_fract_x
  _atom_site_fract_y
  _atom_site_fract_z
  _atom_site_occupancy
  Mg  Mg1       1.0  0.00018661487199991486  0.9126064801212275  0.2234725127492134  1.0000
  Mg  Mg2       1.0  0.00019290904253321806  0.08980909784959917  0.7381880646692264  1.0000
  Mg  Mg3       1.0  0.5077088060527135  0.4157932422584414  0.25373527695380027  1.0000
  Mg  Mg4       1.0  0.49407952177570114  0.589685028166896  0.7437629970775361  1.0000
  Ca  Ca1       1.0  0.9788307410307577  0.3112213929600111  0.2522235211839816  1.0000
  Ca  Ca2       1.0  0.004828535150604525  0.7013902462723687  0.7401549488369208  1.0000
  Ca  Ca3       1.0  0.49606333953639337  0.8039816678041388  0.26375860235426485  1.0000
  Ca  Ca4       1.0  0.4809233039283407  0.19383915256393944  0.7511411918697684  1.0000
  Si  Si1       1.0  0.2842064592207299  0.08156765607467988  0.21650388562872355  1.0000
  Si  Si2       1.0  0.7187201700146408  0.09139227174403404  0.25724402063243973  1.0000
  Si  Si3       1.0  0.7098336404986155  0.9081267383081354  0.7552229613417278  1.0000
  Si  Si4       1.0  0.29027399263340636  0.8946677717498178  0.725923191549319  1.0000
  Si  Si5       1.0  0.7831739885447662  0.6020252750176405  0.2390998701002189  1.0000
  Si  Si6       1.0  0.21613255394783684  0.5929600411803491  0.28531621081925074  1.0000
  Si  Si7       1.0  0.2105453878749695  0.39856070168538676  0.7734546772094032  1.0000
  Si  Si8       1.0  0.7887808987605943  0.4097370368656665  0.7407584743934668  1.0000
  O   O1        1.0  0.11699245181946831  0.09088796747215121  0.14350607762762227  1.0000
  O   O2        1.0  0.8867428150170445  0.07511358026119447  0.3492495376821042  1.0000
  O   O3        1.0  0.8866141359246811  0.9215539323763143  0.8627634150951824  1.0000
  O   O4        1.0  0.11368157279103668  0.9117457275387801  0.6278498016650483  1.0000
  O   O5        1.0  0.6125591391132645  0.5904523568809356  0.1383121912178056  1.0000
  O   O6        1.0  0.3931107894886225  0.5934142361392266  0.3775117841278302  1.0000
  O   O7        1.0  0.3802735365029904  0.40551396777290655  0.8674912845199074  1.0000
  O   O8        1.0  0.6189378799975821  0.41645810477853995  0.6706653167480814  1.0000
  O   O9        1.0  0.37428720093726664  0.2385006790130597  0.33652088025271726  1.0000
  O   O10       1.0  0.6674014354135267  0.2656048329072632  0.18536414058734976  1.0000
  O   O11       1.0  0.6456247866897982  0.7465375712848037  0.6810614666474322  1.0000
  O   O12       1.0  0.36735181297758873  0.7375652049185069  0.8345013282706087  1.0000
  O   O13       1.0  0.8516332262974741  0.7631810732339298  0.3099008445097468  1.0000
  O   O14       1.0  0.15468697811396268  0.7620386991173986  0.16362452763929886  1.0000
  O   O15       1.0  0.15273382681704553  0.23945535980751656  0.6588151717103357  1.0000
  O   O16       1.0  0.8710144091382025  0.24967206445418685  0.826114032799418  1.0000
  O   O17       1.0  0.3540600536226528  0.020095792895233028  0.9823826055202063  1.0000
  O   O18       1.0  0.6484717375382508  0.027043035778320165  0.49823849076458565  1.0000
  O   O19       1.0  0.6325393071556427  0.9854161239574778  0.9730038018575903  1.0000
  O   O20       1.0  0.35969104549891495  0.9614915198556375  0.47584835898452593  1.0000
  O   O21       1.0  0.85830437134181  0.5167392034610001  0.02358525190522487  1.0000
  O   O22       1.0  0.1328917441772032  0.5289624102071742  0.5144842588497248  1.0000
  O   O23       1.0  0.15548587433096353  0.45603012180592023  0.03823988988880233  1.0000
  O   O24       1.0  0.857273325792732  0.49519884671887476  0.51614674143883  1.0000
